Circuit: * C:\Users\caiog\Documents\LTspiceXVII\lib\sym\LTspicePowerElectronics\PWM\Draft1.asc

WARNING: Less than two connections to node N002.  This node is used by V3.
WARNING: Less than two connections to node N001.  This node is used by V4.
.OP point found by inspection.

Date: Fri Sep 18 17:37:55 2020
Total elapsed time: 0.266 seconds.

tnom = 27
temp = 27
method = modified trap
totiter = 8714
traniter = 8714
tranpoints = 4358
accept = 4358
rejected = 0
matrix size = 4
fillins = 0
solver = Normal
Matrix Compiler1: 46 bytes object code size  0.0/0.0/[0.0]
Matrix Compiler2: 160 bytes object code size  0.0/0.0/[0.0]

